<?xml version="1.0" encoding="UTF-8"?>

<!-- generated on 2025-03-01 02:17:59 by Eclipse SUMO netconvert Version 1.21.0
<netconvertConfiguration xmlns:xsi="http://www.w3.org/2001/XMLSchema-instance" xsi:noNamespaceSchemaLocation="http://sumo.dlr.de/xsd/netconvertConfiguration.xsd">

    <input>
        <osm-files value="map.osm"/>
    </input>

    <output>
        <output-file value="map.net.xml"/>
    </output>

    <projection>
        <proj.utm value="true"/>
    </projection>

    <processing>
        <geometry.remove value="true"/>
        <roundabouts.guess value="true"/>
    </processing>

    <tls_building>
        <tls.discard-simple value="true"/>
        <tls.join value="true"/>
    </tls_building>

    <ramp_guessing>
        <ramps.guess value="true"/>
    </ramp_guessing>

    <junctions>
        <junctions.join value="true"/>
    </junctions>

</netconvertConfiguration>
-->

<net version="1.20" junctionCornerDetail="5" limitTurnSpeed="5.50" xmlns:xsi="http://www.w3.org/2001/XMLSchema-instance" xsi:noNamespaceSchemaLocation="http://sumo.dlr.de/xsd/net_file.xsd">

    <location netOffset="-350513.70,-2768207.46" convBoundary="0.00,0.00,5361.33,2059.72" origBoundary="121.518327,25.022201,121.571458,25.040794" projParameter="+proj=utm +zone=51 +ellps=WGS84 +datum=WGS84 +units=m +no_defs"/>

    <type id="highway.cycleway" priority="1" numLanes="1" speed="5.56" allow="bicycle" oneway="0" width="2.00"/>
    <type id="highway.footway" priority="1" numLanes="1" speed="2.78" allow="pedestrian" oneway="1" width="2.00"/>
    <type id="highway.path" priority="1" numLanes="1" speed="5.56" allow="pedestrian bicycle" oneway="0" width="2.00"/>
    <type id="highway.pedestrian" priority="1" numLanes="1" speed="2.78" allow="pedestrian" oneway="1" width="2.00"/>
    <type id="highway.residential" priority="3" numLanes="1" speed="13.89" disallow="tram rail_urban rail rail_electric rail_fast ship container cable_car subway aircraft wheelchair scooter drone" oneway="0"/>
    <type id="highway.secondary" priority="11" numLanes="1" speed="27.78" disallow="tram rail_urban rail rail_electric rail_fast ship container cable_car subway aircraft wheelchair scooter drone" oneway="0"/>
    <type id="highway.service" priority="1" numLanes="1" speed="5.56" allow="pedestrian delivery bicycle" oneway="0"/>
    <type id="highway.steps" priority="1" numLanes="1" speed="1.39" allow="pedestrian" oneway="1" width="2.00"/>
    <type id="highway.tertiary" priority="10" numLanes="1" speed="22.22" disallow="tram rail_urban rail rail_electric rail_fast ship container cable_car subway aircraft wheelchair scooter drone" oneway="0"/>
    <type id="highway.tertiary_link" priority="5" numLanes="1" speed="22.22" disallow="tram rail_urban rail rail_electric rail_fast ship container cable_car subway aircraft wheelchair scooter drone" oneway="0"/>
    <type id="highway.trunk" priority="13" numLanes="2" speed="27.78" disallow="pedestrian bicycle tram rail_urban rail rail_electric rail_fast ship container cable_car subway aircraft wheelchair scooter drone" oneway="0"/>
    <type id="highway.trunk_link" priority="8" numLanes="1" speed="22.22" disallow="pedestrian bicycle tram rail_urban rail rail_electric rail_fast ship container cable_car subway aircraft wheelchair scooter drone" oneway="0"/>
    <type id="highway.unclassified" priority="4" numLanes="1" speed="13.89" disallow="tram rail_urban rail rail_electric rail_fast ship container cable_car subway aircraft wheelchair scooter drone" oneway="0"/>
    <type id="railway.subway" priority="18" numLanes="1" speed="27.78" allow="subway" oneway="1"/>

    <edge id=":11035510242_0" function="internal">
        <lane id=":11035510242_0_0" index="0" allow="pedestrian bicycle" speed="2.89" length="2.92" width="2.00" shape="816.60,924.69 817.47,924.91 817.88,925.30 817.81,925.85 817.27,926.57"/>
    </edge>
    <edge id=":11385081301_0" function="internal">
        <lane id=":11385081301_0_0" index="0" allow="pedestrian delivery bicycle" speed="5.56" length="14.85" shape="1916.88,1065.13 1914.16,1067.17 1910.44,1067.74 1906.48,1068.09 1903.04,1069.48"/>
    </edge>
    <edge id=":11385081301_1" function="internal">
        <lane id=":11385081301_1_0" index="0" allow="pedestrian delivery bicycle" speed="5.56" length="16.09" shape="1916.88,1065.13 1913.94,1066.79 1909.71,1066.49 1905.18,1065.90 1901.34,1066.68"/>
    </edge>
    <edge id=":11385081305_0" function="internal">
        <lane id=":11385081305_0_0" index="0" allow="pedestrian delivery bicycle" speed="5.56" length="5.13" shape="1925.61,1064.39 1920.49,1064.45"/>
    </edge>
    <edge id=":11385081305_1" function="internal">
        <lane id=":11385081305_1_0" index="0" allow="pedestrian delivery bicycle" speed="3.65" length="1.44" shape="1925.61,1064.39 1924.40,1063.61"/>
    </edge>
    <edge id=":11385081305_4" function="internal">
        <lane id=":11385081305_4_0" index="0" allow="pedestrian delivery bicycle" speed="3.65" length="3.23" shape="1924.40,1063.61 1924.00,1062.81 1924.39,1062.01 1925.58,1061.19"/>
    </edge>
    <edge id=":11385081305_2" function="internal">
        <lane id=":11385081305_2_0" index="0" allow="pedestrian delivery bicycle" speed="5.56" length="5.13" shape="1920.45,1061.25 1925.58,1061.19"/>
    </edge>
    <edge id=":11385081305_3" function="internal">
        <lane id=":11385081305_3_0" index="0" allow="pedestrian delivery bicycle" speed="3.65" length="1.44" shape="1920.45,1061.25 1921.66,1062.04"/>
    </edge>
    <edge id=":11385081305_5" function="internal">
        <lane id=":11385081305_5_0" index="0" allow="pedestrian delivery bicycle" speed="3.65" length="3.23" shape="1921.66,1062.04 1922.07,1062.83 1921.68,1063.64 1920.49,1064.45"/>
    </edge>
    <edge id=":11385081312_0" function="internal">
        <lane id=":11385081312_0_0" index="0" allow="pedestrian delivery bicycle" speed="5.30" length="3.21" shape="1920.03,1064.45 1919.20,1064.42 1918.33,1064.39 1917.54,1064.52 1916.98,1064.96"/>
    </edge>
    <edge id=":11385081312_1" function="internal">
        <lane id=":11385081312_1_0" index="0" allow="pedestrian delivery bicycle" speed="3.65" length="4.67" shape="1920.03,1064.45 1918.82,1063.67 1918.41,1062.87 1918.80,1062.07 1919.99,1061.25"/>
    </edge>
    <edge id=":11385081312_2" function="internal">
        <lane id=":11385081312_2_0" index="0" allow="pedestrian delivery bicycle" speed="5.56" length="6.68" shape="1915.19,1056.60 1919.99,1061.25"/>
    </edge>
    <edge id=":11385081312_3" function="internal">
        <lane id=":11385081312_3_0" index="0" allow="pedestrian delivery bicycle" speed="5.56" length="11.48" shape="1915.19,1056.60 1917.91,1057.11 1919.12,1058.67 1918.81,1061.29 1916.98,1064.96"/>
    </edge>
    <edge id=":11385081312_4" function="internal">
        <lane id=":11385081312_4_0" index="0" allow="pedestrian delivery bicycle" speed="5.56" length="8.58" shape="1911.53,1060.08 1914.05,1060.24 1915.76,1060.66 1917.47,1061.08 1919.99,1061.25"/>
    </edge>
    <edge id=":11385081312_5" function="internal">
        <lane id=":11385081312_5_0" index="0" allow="pedestrian delivery bicycle" speed="5.56" length="9.84" shape="1911.53,1060.08 1915.08,1060.33 1917.17,1061.22 1917.80,1062.77 1916.98,1064.96"/>
    </edge>
    <edge id=":11385081313_0" function="internal">
        <lane id=":11385081313_0_0" index="0" allow="pedestrian delivery bicycle" speed="5.09" length="5.06" shape="1933.54,1067.38 1933.31,1066.04 1932.69,1065.09 1931.69,1064.52 1930.29,1064.34"/>
    </edge>
    <edge id=":11385081313_1" function="internal">
        <lane id=":11385081313_1_0" index="0" disallow="tram rail_urban rail rail_electric rail_fast ship container cable_car subway aircraft wheelchair scooter drone" speed="13.89" length="9.40" shape="1933.54,1067.38 1933.30,1057.99"/>
        <lane id=":11385081313_1_1" index="1" disallow="tram rail_urban rail rail_electric rail_fast ship container cable_car subway aircraft wheelchair scooter drone" speed="13.89" length="9.40" shape="1936.74,1067.30 1936.50,1057.91"/>
        <lane id=":11385081313_1_2" index="2" disallow="tram rail_urban rail rail_electric rail_fast ship container cable_car subway aircraft wheelchair scooter drone" speed="13.89" length="9.40" shape="1939.94,1067.22 1939.70,1057.82"/>
        <lane id=":11385081313_1_3" index="3" disallow="tram rail_urban rail rail_electric rail_fast ship container cable_car subway aircraft wheelchair scooter drone" speed="13.89" length="9.40" shape="1943.14,1067.14 1942.90,1057.74"/>
    </edge>
    <edge id=":11385081313_5" function="internal">
        <lane id=":11385081313_5_0" index="0" allow="pedestrian delivery bicycle" speed="5.02" length="5.02" shape="1930.26,1061.14 1931.62,1060.93 1932.58,1060.34 1933.14,1059.36 1933.30,1057.99"/>
        <lane id=":11385081313_5_1" index="1" allow="pedestrian delivery bicycle" speed="6.07" length="7.80" shape="1930.26,1061.14 1933.02,1060.92 1934.98,1060.30 1936.14,1059.30 1936.50,1057.91"/>
    </edge>
    <edge id=":11385081313_7" function="internal">
        <lane id=":11385081313_7_0" index="0" allow="pedestrian delivery bicycle" speed="3.65" length="4.67" shape="1930.26,1061.14 1931.47,1061.93 1931.88,1062.73 1931.49,1063.53 1930.29,1064.34"/>
    </edge>
    <edge id=":11385111734_0" function="internal">
        <lane id=":11385111734_0_0" index="0" allow="bicycle" speed="5.56" length="4.99" width="1.50" shape="1926.53,1088.23 1926.35,1083.23"/>
    </edge>
    <edge id=":11385111734_1" function="internal">
        <lane id=":11385111734_1_0" index="0" allow="bicycle" speed="2.50" length="1.10" width="1.50" shape="1926.53,1088.23 1926.88,1087.65 1927.25,1087.45"/>
    </edge>
    <edge id=":11385111734_4" function="internal">
        <lane id=":11385111734_4_0" index="0" allow="bicycle" speed="2.50" length="1.10" width="1.50" shape="1927.25,1087.45 1927.63,1087.62 1928.03,1088.17"/>
    </edge>
    <edge id=":11385111734_2" function="internal">
        <lane id=":11385111734_2_0" index="0" allow="bicycle" speed="5.56" length="4.98" width="1.50" shape="1927.85,1083.19 1928.03,1088.17"/>
    </edge>
    <edge id=":11385111734_3" function="internal">
        <lane id=":11385111734_3_0" index="0" allow="bicycle" speed="2.50" length="1.10" width="1.50" shape="1927.85,1083.19 1927.49,1083.76 1927.12,1083.96"/>
    </edge>
    <edge id=":11385111734_5" function="internal">
        <lane id=":11385111734_5_0" index="0" allow="bicycle" speed="2.50" length="1.10" width="1.50" shape="1927.12,1083.96 1926.74,1083.78 1926.35,1083.23"/>
    </edge>
    <edge id=":11387164682_0" function="internal">
        <lane id=":11387164682_0_0" index="0" allow="bicycle" speed="2.89" length="2.92" width="2.00" shape="1841.38,1201.46 1841.87,1200.71 1842.37,1200.45 1842.87,1200.70 1843.38,1201.44"/>
    </edge>
    <edge id=":11387164683_0" function="internal">
        <lane id=":11387164683_0_0" index="0" allow="bicycle" speed="5.56" length="6.33" width="2.00" shape="1845.44,1221.76 1839.11,1221.91"/>
    </edge>
    <edge id=":11387164683_1" function="internal">
        <lane id=":11387164683_1_0" index="0" allow="bicycle" speed="5.56" length="6.78" width="2.00" shape="1845.44,1221.76 1843.74,1221.51 1842.52,1220.69 1841.78,1219.28 1841.52,1217.30"/>
    </edge>
    <edge id=":11387164683_2" function="internal">
        <lane id=":11387164683_2_0" index="0" allow="bicycle" speed="2.91" length="2.99" width="2.00" shape="1845.44,1221.76 1844.79,1221.11 1844.63,1220.55 1844.98,1220.10 1845.83,1219.75"/>
    </edge>
    <edge id=":11387164683_3" function="internal">
        <lane id=":11387164683_3_0" index="0" allow="bicycle" speed="4.34" length="3.86" width="2.00" shape="1843.52,1217.28 1843.67,1218.38 1844.11,1219.16 1844.83,1219.61 1845.83,1219.75"/>
    </edge>
    <edge id=":11387164683_4" function="internal">
        <lane id=":11387164683_4_0" index="0" allow="bicycle" speed="5.56" length="7.26" width="2.00" shape="1843.52,1217.28 1843.26,1219.27 1842.44,1220.70 1841.05,1221.58 1839.11,1221.91"/>
    </edge>
    <edge id=":11387164683_5" function="internal">
        <lane id=":11387164683_5_0" index="0" allow="bicycle" speed="2.89" length="2.92" width="2.00" shape="1843.52,1217.28 1843.02,1218.04 1842.53,1218.29 1842.02,1218.05 1841.52,1217.30"/>
    </edge>
    <edge id=":11387164683_6" function="internal">
        <lane id=":11387164683_6_0" index="0" allow="bicycle" speed="4.48" length="4.07" width="2.00" shape="1839.06,1219.91 1840.14,1219.72 1840.91,1219.23 1841.37,1218.42 1841.52,1217.30"/>
    </edge>
    <edge id=":11387164683_7" function="internal">
        <lane id=":11387164683_7_0" index="0" allow="bicycle" speed="5.56" length="6.78" width="2.00" shape="1839.06,1219.91 1845.83,1219.75"/>
    </edge>
    <edge id=":11387164683_8" function="internal">
        <lane id=":11387164683_8_0" index="0" allow="bicycle" speed="2.89" length="2.92" width="2.00" shape="1839.06,1219.91 1839.82,1220.39 1840.08,1220.89 1839.85,1221.39 1839.11,1221.91"/>
    </edge>
    <edge id=":11387164684_0" function="internal">
        <lane id=":11387164684_0_0" index="0" allow="bicycle" speed="2.89" length="2.92" width="2.00" shape="1828.01,1222.19 1827.25,1221.71 1826.99,1221.22 1827.23,1220.71 1827.96,1220.19"/>
    </edge>
    <edge id=":11387164686_0" function="internal">
        <lane id=":11387164686_0_0" index="0" allow="bicycle" speed="5.56" length="7.00" width="1.50" shape="1850.74,1231.96 1843.74,1232.19"/>
    </edge>
    <edge id=":11387164686_1" function="internal">
        <lane id=":11387164686_1_0" index="0" allow="bicycle" speed="5.47" length="6.68" width="1.50" shape="1850.74,1231.96 1848.76,1231.79 1847.33,1231.13 1846.45,1229.98 1846.13,1228.34"/>
    </edge>
    <edge id=":11387164686_2" function="internal">
        <lane id=":11387164686_2_0" index="0" allow="bicycle" speed="2.50" length="2.19" width="1.50" shape="1850.74,1231.96 1850.16,1231.61 1849.96,1231.24 1850.14,1230.86 1850.69,1230.46"/>
    </edge>
    <edge id=":11387164686_3" function="internal">
        <lane id=":11387164686_3_0" index="0" allow="bicycle" speed="4.33" length="3.84" width="1.50" shape="1848.13,1228.29 1848.31,1229.27 1848.80,1229.96 1849.59,1230.36 1850.69,1230.46"/>
    </edge>
    <edge id=":11387164686_4" function="internal">
        <lane id=":11387164686_4_0" index="0" allow="bicycle" speed="5.56" length="6.67" width="1.50" shape="1848.13,1228.29 1847.89,1229.94 1847.08,1231.14 1845.70,1231.89 1843.74,1232.19"/>
    </edge>
    <edge id=":11387164686_5" function="internal">
        <lane id=":11387164686_5_0" index="0" allow="bicycle" speed="2.89" length="2.92" width="2.00" shape="1848.13,1228.29 1847.65,1229.05 1847.15,1229.31 1846.65,1229.07 1846.13,1228.34"/>
    </edge>
    <edge id=":11387164686_6" function="internal">
        <lane id=":11387164686_6_0" index="0" allow="bicycle" speed="4.29" length="3.86" width="1.50" shape="1843.69,1230.69 1844.78,1230.52 1845.55,1230.06 1846.00,1229.34 1846.13,1228.34"/>
    </edge>
    <edge id=":11387164686_7" function="internal">
        <lane id=":11387164686_7_0" index="0" allow="bicycle" speed="5.56" length="7.00" width="1.50" shape="1843.69,1230.69 1850.69,1230.46"/>
    </edge>
    <edge id=":11387164686_8" function="internal">
        <lane id=":11387164686_8_0" index="0" allow="bicycle" speed="2.50" length="2.19" width="1.50" shape="1843.69,1230.69 1844.27,1231.05 1844.47,1231.42 1844.29,1231.80 1843.74,1232.19"/>
    </edge>
    <edge id=":11921605373_0" function="internal">
        <lane id=":11921605373_0_0" index="0" allow="pedestrian delivery bicycle" speed="5.56" length="5.00" shape="923.57,478.95 923.17,473.96"/>
    </edge>
    <edge id=":11921605373_1" function="internal">
        <lane id=":11921605373_1_0" index="0" allow="pedestrian delivery bicycle" speed="3.65" length="1.44" shape="923.57,478.95 924.27,477.69"/>
    </edge>
    <edge id=":11921605373_4" function="internal">
        <lane id=":11921605373_4_0" index="0" allow="pedestrian delivery bicycle" speed="3.65" length="3.23" shape="924.27,477.69 925.04,477.23 925.87,477.56 926.76,478.70"/>
    </edge>
    <edge id=":11921605373_2" function="internal">
        <lane id=":11921605373_2_0" index="0" allow="pedestrian delivery bicycle" speed="5.56" length="5.01" shape="926.36,473.71 926.76,478.70"/>
    </edge>
    <edge id=":11921605373_3" function="internal">
        <lane id=":11921605373_3_0" index="0" allow="pedestrian delivery bicycle" speed="3.65" length="1.44" shape="926.36,473.71 925.66,474.97"/>
    </edge>
    <edge id=":11921605373_5" function="internal">
        <lane id=":11921605373_5_0" index="0" allow="pedestrian delivery bicycle" speed="3.65" length="3.23" shape="925.66,474.97 924.89,475.43 924.07,475.10 923.17,473.96"/>
    </edge>
    <edge id=":12124501073_0" function="internal">
        <lane id=":12124501073_0_0" index="0" allow="pedestrian delivery bicycle" speed="5.56" length="6.19" shape="1091.34,552.79 1085.24,553.88"/>
    </edge>
    <edge id=":12124501073_1" function="internal">
        <lane id=":12124501073_1_0" index="0" allow="pedestrian delivery bicycle" speed="3.65" length="4.67" shape="1091.34,552.79 1090.02,552.22 1089.48,551.50 1089.74,550.64 1090.78,549.64"/>
    </edge>
    <edge id=":12124501073_2" function="internal">
        <lane id=":12124501073_2_0" index="0" allow="pedestrian delivery bicycle" speed="5.56" length="6.19" shape="1084.68,550.72 1090.78,549.64"/>
    </edge>
    <edge id=":12124501073_3" function="internal">
        <lane id=":12124501073_3_0" index="0" allow="pedestrian delivery bicycle" speed="3.65" length="4.67" shape="1084.68,550.72 1086.00,551.30 1086.54,552.02 1086.28,552.88 1085.24,553.88"/>
    </edge>
    <edge id=":12124501079_0" function="internal">
        <lane id=":12124501079_0_0" index="0" allow="pedestrian delivery bicycle" speed="5.56" length="6.21" shape="1121.66,547.36 1115.55,548.46"/>
    </edge>
    <edge id=":12124501079_1" function="internal">
        <lane id=":12124501079_1_0" index="0" allow="pedestrian delivery bicycle" speed="3.65" length="1.44" shape="1121.66,547.36 1120.34,546.79"/>
    </edge>
    <edge id=":12124501079_4" function="internal">
        <lane id=":12124501079_4_0" index="0" allow="pedestrian delivery bicycle" speed="3.65" length="3.23" shape="1120.34,546.79 1119.80,546.07 1120.06,545.21 1121.10,544.21"/>
    </edge>
    <edge id=":12124501079_2" function="internal">
        <lane id=":12124501079_2_0" index="0" allow="pedestrian delivery bicycle" speed="5.56" length="6.21" shape="1114.98,545.31 1121.10,544.21"/>
    </edge>
    <edge id=":12124501079_3" function="internal">
        <lane id=":12124501079_3_0" index="0" allow="pedestrian delivery bicycle" speed="3.65" length="1.44" shape="1114.98,545.31 1116.31,545.89"/>
    </edge>
    <edge id=":12124501079_5" function="internal">
        <lane id=":12124501079_5_0" index="0" allow="pedestrian delivery bicycle" speed="3.65" length="3.23" shape="1116.31,545.89 1116.84,546.60 1116.59,547.46 1115.55,548.46"/>
    </edge>
    <edge id=":1526748783_0" function="internal">
        <lane id=":1526748783_0_0" index="0" disallow="tram rail_urban rail rail_electric rail_fast ship container cable_car subway aircraft wheelchair scooter drone" speed="13.89" length="5.04" shape="923.89,1088.87 923.04,1083.91"/>
    </edge>
    <edge id=":1526748783_1" function="internal">
        <lane id=":1526748783_1_0" index="0" disallow="tram rail_urban rail rail_electric rail_fast ship container cable_car subway aircraft wheelchair scooter drone" speed="13.89" length="5.01" shape="926.19,1083.37 927.04,1088.31"/>
    </edge>
    <edge id=":1526748785_0" function="internal">
        <lane id=":1526748785_0_0" index="0" disallow="tram rail_urban rail rail_electric rail_fast ship container cable_car subway aircraft wheelchair scooter drone" speed="13.89" length="3.35" shape="1012.59,1070.50 1013.34,1073.76"/>
    </edge>
    <edge id=":1933369991_0" function="internal">
        <lane id=":1933369991_0_0" index="0" allow="bus bicycle" speed="3.65" length="4.67" shape="612.53,1479.24 611.09,1479.30 610.29,1478.89 610.14,1478.01 610.64,1476.66"/>
    </edge>
    <edge id=":1972331069_0" function="internal">
        <lane id=":1972331069_0_0" index="0" allow="pedestrian delivery bicycle" speed="5.56" length="5.01" shape="1136.28,390.81 1141.26,391.30"/>
    </edge>
    <edge id=":2004499326_0" function="internal">
        <lane id=":2004499326_0_0" index="0" disallow="tram rail_urban rail rail_electric rail_fast ship container cable_car subway aircraft wheelchair scooter drone" speed="8.33" length="6.19" shape="1526.39,372.41 1525.68,366.26"/>
    </edge>
    <edge id=":2004499326_1" function="internal">
        <lane id=":2004499326_1_0" index="0" allow="pedestrian delivery bicycle" speed="5.01" length="5.03" shape="1532.35,368.65 1531.00,368.96 1530.09,369.63 1529.61,370.66 1529.57,372.04"/>
    </edge>
    <edge id=":2004499326_2" function="internal">
        <lane id=":2004499326_2_0" index="0" allow="pedestrian delivery bicycle" speed="6.15" length="7.75" shape="1532.35,368.65 1529.56,368.70 1527.52,368.32 1526.23,367.51 1525.68,366.26"/>
    </edge>
    <edge id=":2004499326_3" function="internal">
        <lane id=":2004499326_3_0" index="0" disallow="tram rail_urban rail rail_electric rail_fast ship container cable_car subway aircraft wheelchair scooter drone" speed="8.33" length="6.20" shape="1528.86,365.89 1529.57,372.04"/>
    </edge>
    <edge id=":2084584515_0" function="internal">
        <lane id=":2084584515_0_0" index="0" disallow="tram rail_urban rail rail_electric rail_fast ship container cable_car subway aircraft wheelchair scooter drone" speed="3.65" length="4.67" shape="683.50,663.78 682.27,663.03 681.84,662.25 682.21,661.43 683.38,660.58"/>
    </edge>
    <edge id=":2084593518_0" function="internal">
        <lane id=":2084593518_0_0" index="0" disallow="tram rail_urban rail rail_electric rail_fast ship container cable_car subway aircraft wheelchair scooter drone" speed="7.12" length="9.84" shape="782.46,666.38 781.66,664.07 780.18,662.45 778.03,661.51 775.19,661.26"/>
    </edge>
    <edge id=":2084593518_1" function="internal">
        <lane id=":2084593518_1_0" index="0" disallow="tram rail_urban rail rail_electric rail_fast ship container cable_car subway aircraft wheelchair scooter drone" speed="27.78" length="14.50" shape="782.46,666.38 779.88,652.11"/>
    </edge>
    <edge id=":2084593518_2" function="internal">
        <lane id=":2084593518_2_0" index="0" disallow="tram rail_urban rail rail_electric rail_fast ship container cable_car subway aircraft wheelchair scooter drone" speed="6.19" length="9.05" shape="775.10,658.06 777.60,657.62 779.23,656.49 779.99,654.65 779.88,652.11"/>
    </edge>
    <edge id=":2084593518_3" function="internal">
        <lane id=":2084593518_3_0" index="0" disallow="tram rail_urban rail rail_electric rail_fast ship container cable_car subway aircraft wheelchair scooter drone" speed="3.65" length="4.67" shape="775.10,658.06 776.32,658.82 776.74,659.61 776.37,660.42 775.19,661.26"/>
    </edge>
    <edge id=":2122292563_0" function="internal">
        <lane id=":2122292563_0_0" index="0" allow="pedestrian delivery bicycle" speed="5.56" length="3.64" shape="923.18,440.47 922.11,440.39 921.37,440.39 920.63,440.49 919.58,440.70"/>
    </edge>
    <edge id=":2122292563_1" function="internal">
        <lane id=":2122292563_1_0" index="0" allow="pedestrian delivery bicycle" speed="3.65" length="1.44" shape="923.18,440.47 922.05,439.58"/>
    </edge>
    <edge id=":2122292563_4" function="internal">
        <lane id=":2122292563_4_0" index="0" allow="pedestrian delivery bicycle" speed="3.65" length="3.23" shape="922.05,439.58 921.71,438.75 922.16,437.98 923.42,437.28"/>
    </edge>
    <edge id=":2122292563_2" function="internal">
        <lane id=":2122292563_2_0" index="0" allow="pedestrian delivery bicycle" speed="5.56" length="4.55" shape="918.91,437.57 920.23,437.30 921.15,437.18 922.08,437.19 923.42,437.28"/>
    </edge>
    <edge id=":2122292563_3" function="internal">
        <lane id=":2122292563_3_0" index="0" allow="pedestrian delivery bicycle" speed="3.65" length="1.44" shape="918.91,437.57 920.25,438.10"/>
    </edge>
    <edge id=":2122292563_5" function="internal">
        <lane id=":2122292563_5_0" index="0" allow="pedestrian delivery bicycle" speed="3.65" length="3.23" shape="920.25,438.10 920.81,438.80 920.59,439.67 919.58,440.70"/>
    </edge>
    <edge id=":2122292568_0" function="internal">
        <lane id=":2122292568_0_0" index="0" allow="pedestrian delivery bicycle" speed="5.04" length="5.00" shape="863.03,448.10 862.72,446.76 862.05,445.85 861.04,445.35 859.67,445.28"/>
    </edge>
    <edge id=":2122292568_1" function="internal">
        <lane id=":2122292568_1_0" index="0" allow="pedestrian delivery bicycle" speed="5.56" length="9.39" shape="863.03,448.10 862.26,438.74"/>
    </edge>
    <edge id=":2122292568_2" function="internal">
        <lane id=":2122292568_2_0" index="0" allow="pedestrian delivery bicycle" speed="3.65" length="4.67" shape="863.03,448.10 863.72,446.83 864.48,446.37 865.32,446.70 866.22,447.82"/>
    </edge>
    <edge id=":2122292568_3" function="internal">
        <lane id=":2122292568_3_0" index="0" allow="pedestrian delivery bicycle" speed="5.56" length="9.36" shape="865.45,438.49 866.22,447.82"/>
    </edge>
    <edge id=":2122292568_4" function="internal">
        <lane id=":2122292568_4_0" index="0" allow="pedestrian delivery bicycle" speed="5.56" length="10.14" shape="865.45,438.49 865.27,441.25 864.25,443.30 862.38,444.65 859.67,445.28"/>
    </edge>
    <edge id=":2122292568_5" function="internal">
        <lane id=":2122292568_5_0" index="0" allow="pedestrian delivery bicycle" speed="3.65" length="4.67" shape="865.45,438.49 864.74,439.75 863.98,440.21 863.15,439.88 862.26,438.74"/>
    </edge>
    <edge id=":2122292568_6" function="internal">
        <lane id=":2122292568_6_0" index="0" allow="pedestrian delivery bicycle" speed="5.07" length="5.02" shape="859.38,442.09 860.73,441.78 861.66,441.12 862.17,440.10 862.26,438.74"/>
    </edge>
    <edge id=":2122292568_7" function="internal">
        <lane id=":2122292568_7_0" index="0" allow="pedestrian delivery bicycle" speed="5.56" length="10.17" shape="859.38,442.09 862.17,442.24 864.24,443.25 865.59,445.11 866.22,447.82"/>
    </edge>
    <edge id=":2122292568_8" function="internal">
        <lane id=":2122292568_8_0" index="0" allow="pedestrian delivery bicycle" speed="3.65" length="4.67" shape="859.38,442.09 860.65,442.78 861.12,443.54 860.79,444.38 859.67,445.28"/>
    </edge>
    <edge id=":2122292575_0" function="internal">
        <lane id=":2122292575_0_0" index="0" allow="pedestrian delivery bicycle" speed="5.56" length="8.16" shape="934.10,454.31 934.41,452.17 934.29,450.16 933.73,448.27 932.75,446.51"/>
    </edge>
    <edge id=":2122292575_1" function="internal">
        <lane id=":2122292575_1_0" index="0" allow="pedestrian delivery bicycle" speed="5.56" length="9.22" shape="934.10,454.31 934.97,451.70 936.19,449.72 937.77,448.37 939.70,447.65"/>
    </edge>
    <edge id=":2122292575_2" function="internal">
        <lane id=":2122292575_2_0" index="0" allow="pedestrian delivery bicycle" speed="3.69" length="4.84" shape="934.10,454.31 934.89,453.04 935.70,452.60 936.54,452.99 937.41,454.21"/>
    </edge>
    <edge id=":2122292575_3" function="internal">
        <lane id=":2122292575_3_0" index="0" allow="pedestrian delivery bicycle" speed="5.56" length="4.75" shape="940.31,450.79 939.31,451.16 938.49,451.86 937.86,452.87 937.41,454.21"/>
    </edge>
    <edge id=":2122292575_4" function="internal">
        <lane id=":2122292575_4_0" index="0" allow="pedestrian delivery bicycle" speed="5.56" length="9.19" shape="940.31,450.79 938.34,450.81 936.43,450.11 934.56,448.67 932.75,446.51"/>
    </edge>
    <edge id=":2122292575_5" function="internal">
        <lane id=":2122292575_5_0" index="0" allow="pedestrian delivery bicycle" speed="3.65" length="4.67" shape="940.31,450.79 938.98,450.23 938.44,449.52 938.68,448.66 939.70,447.65"/>
    </edge>
    <edge id=":2122292575_6" function="internal">
        <lane id=":2122292575_6_0" index="0" allow="pedestrian delivery bicycle" speed="5.56" length="4.62" shape="935.92,445.45 936.84,446.55 937.78,447.29 938.73,447.65 939.70,447.65"/>
    </edge>
    <edge id=":2122292575_7" function="internal">
        <lane id=":2122292575_7_0" index="0" allow="pedestrian delivery bicycle" speed="5.56" length="9.16" shape="935.92,445.45 937.02,447.42 937.63,449.53 937.76,451.80 937.41,454.21"/>
    </edge>
    <edge id=":2122292575_8" function="internal">
        <lane id=":2122292575_8_0" index="0" allow="pedestrian delivery bicycle" speed="3.70" length="4.88" shape="935.92,445.45 935.53,446.90 934.87,447.56 933.94,447.43 932.75,446.51"/>
    </edge>
    <edge id=":2122292576_0" function="internal">
        <lane id=":2122292576_0_0" index="0" allow="pedestrian delivery bicycle" speed="5.56" length="4.78" shape="908.28,458.53 907.46,457.38 906.55,456.60 905.56,456.18 904.47,456.11"/>
    </edge>
    <edge id=":2122292576_1" function="internal">
        <lane id=":2122292576_1_0" index="0" allow="pedestrian delivery bicycle" speed="5.56" length="9.13" shape="908.28,458.53 907.30,456.42 906.80,454.24 906.76,452.01 907.19,449.71"/>
    </edge>
    <edge id=":2122292576_2" function="internal">