<?xml version="1.0" encoding="UTF-8"?>

<!-- generated on 2025-03-02 20:24:23 by Eclipse SUMO duarouter Version 1.21.0
<duarouterConfiguration xmlns:xsi="http://www.w3.org/2001/XMLSchema-instance" xsi:noNamespaceSchemaLocation="http://sumo.dlr.de/xsd/duarouterConfiguration.xsd">

    <input>
        <net-file value="map.net.xml"/>
        <route-files value="map.trips.xml"/>
    </input>

    <output>
        <output-file value="map.rou.xml"/>
    </output>

    <report>
        <ignore-errors value="true"/>
    </report>

</duarouterConfiguration>
-->

<routes xmlns:xsi="http://www.w3.org/2001/XMLSchema-instance" xsi:noNamespaceSchemaLocation="http://sumo.dlr.de/xsd/routes_file.xsd">
    <vehicle id="0" depart="0.00">
        <route edges="312285229#0 312285229#1 -312294940#4 -312294940#3 -312294940#2 -312294940#1 256014951#4 256014951#5 751224068#0 751224068#1 751224068#2 751224068#3 751224068#4 751224068#6 751224068#7 1068183461#1 1068183461#2 317371467#0 317371467#1 317371467#2 317371467#3 1068183462#0 1068183462#1 1068183464#1 1068183463#0 1068183463#1 317526886#0 317526886#2 317526886#3 1068183465#0 1068183465#1 58976063#0 58976063#1 58976063#2 58976063#5 58976063#6 58976063#8 58976063#10 58976063#11 -231442515#7 -231442515#6"/>
    </vehicle>
    <vehicle id="3" depart="3.00">
        <route edges="551458785 316964691#1 316964691#2 316964691#3 311995318 58976063#0 58976063#1 58976063#2 58976063#5 58976063#6 58976063#8 58976063#10 58976063#11 -231442515#7 -231442515#6 -231442515#5 -231442515#4 -231442515#3 -231442515#1 -231442515#0 -231442514#2 -231442514#1 -231442514#0 317526892#6 317526892#7 317526892#8 -312294940#12"/>
    </vehicle>
    <vehicle id="4" depart="4.00">
        <route edges="231442515#4 231442515#5 231442515#6 231442515#7 58976063#14 58976063#15 58976063#16 529138608#2 529138608#3 529138608#5 529138608#6 529138608#7 317371470#1 317371470#2 317371470#3 317371470#4 317371470#5 317526891#4 -248053430#1"/>
    </vehicle>
    <vehicle id="5" depart="5.00">
        <route edges="1062618310#2 1062618310#3 1062618310#4 1062618310#5 1062618310#6 1062618312#0 1062618312#1 1062618312#2 1062618312#4 1068183451 49695763 261876205#0 261876205#1 261876205#2 261876205#3"/>
    </vehicle>
    <vehicle id="6" depart="6.00">
        <route edges="-231442515#6 -231442515#5 -231442515#4 -231442515#3 -312306447#5 -312306447#4 -312306447#3 -312306447#0 -776226804#1 776226803#1 776226803#2 776226803#3 308585154#1 308585154#2 51833081#1 -51833040#4"/>
    </vehicle>
    <vehicle id="7" depart="7.00">
        <route edges="312294940#11 312294940#12 -312294940#12 -312294940#11 -312294940#10 -312294940#9 -312294940#8 -312294940#7 -312294940#6 -312294940#5 259927557 28473513#5"/>
    </vehicle>
    <vehicle id="8" depart="8.00">
        <route edges="1062618310#3 1062618310#4 1062618310#5 1062618310#6 -751224066 751224068#0 751224068#1 751224068#2 751224068#3 751224068#4 751224068#6 751224068#7 1068183450 906806090#0 906806090#1 906806090#2 1062618316#0 1062618316#1 1062618316#2 262557965#0 262557965#1 1130909483#1 1130909483#2 290486786#0 290486786#1 290486786#2 290486786#3 -303668053 30688329#1"/>
    </vehicle>
    <vehicle id="9" depart="9.00">
        <route edges="327382344#3 327382344#5 327382344#6 327382344#7 303668053 984958491#0 984958491#1 984958491#2 984958491#4 316964691#1 316964691#2 316964691#3 311995318 58976063#0 58976063#1 58976063#2 58976063#5 58976063#6 58976063#8 58976063#10 58976063#11 -231442515#7 -231442515#6 -231442515#5 -231442515#4 -231442515#3 -231442515#1 -231442515#0 -231442514#2 -231442514#1 -231442514#0"/>
    </vehicle>
    <vehicle id="10" depart="10.00">
        <route edges="327382344#2 327382344#3 327382344#5 327382344#6 327382344#7 303668053 984958491#0 984958491#1 984958491#2 984958491#4 316964691#1 316964691#2 316964691#3 311995318 58976063#0 58976063#1 58976063#2 58976063#5 58976063#6 312307198#2 312307198#4 312307198#5 312307198#6"/>
    </vehicle>
    <vehicle id="13" depart="13.00">
        <route edges="-312294940#2 -312294940#1 312294940#1 312294940#2 312294940#3 312294940#4 312294940#5 312294940#6 312294940#7 312294940#8 -312294940#8 -312294940#7 -312294940#6 -312294940#5"/>
    </vehicle>
    <vehicle id="14" depart="14.00">
        <route edges="50823696#1 50823696#2 50823696#3 256015901#1 256015901#2 256015901#5 256015901#6 308585154#1"/>
    </vehicle>
    <vehicle id="15" depart="15.00">
        <route edges="327382344#2 327382344#3 327382344#5 327382344#6 327382344#7 303668053 984958491#0 984958491#1 984958491#2 984958491#4 316964711#0"/>
    </vehicle>
    <vehicle id="18" depart="18.00">
        <route edges="49695723#0 984958492#4 984958492#5 984958492#6 984958492#7 -290486781 1130909483#1 1130909483#2 290486786#0 290486786#1 290486786#2 290486786#3 984958491#0 984958491#1 984958491#2 984958491#4 316964691#1 316964691#2 316964691#3 1068183460#0 1068183460#1 311995322#0 311995322#2 311995322#2-AddedOffRampEdge"/>
    </vehicle>
    <vehicle id="19" depart="19.00">
        <route edges="51833040#1 51833040#2 51833040#3 51833040#4 312285227#1 312285227#2 312285229#0 312285229#1 -312294940#4 -312294940#3 -312294940#2 -312294940#1 256014951#4 256014951#5 751224068#0 751224068#1 751224068#2 751224068#3 751224068#4 751224068#6 751224068#7 1068183461#1 1068183461#2 317371467#0 317371467#1 317371467#2 317371467#3 1068183462#0 1068183462#1 1068183464#1 1068183463#0 1068183463#1 317526886#0 317526886#2 317526886#3 1068183465#0 1068183465#1 232359757 297091618#0 297091618#1"/>
    </vehicle>
    <vehicle id="20" depart="20.00">
        <route edges="312307202#0 312307202#2 51833023 -231442515#3 -231442515#1 -231442515#0 -231442514#2 -231442514#1 -231442514#0 317526892#6 317526892#7 317526892#8 -312294940#12 -312294940#11 -312294940#10 -312294940#9 -312294940#8 -312294940#7 -312294940#6 -312294940#5 259927557 28473513#5 28473513#6 28473513#7 28473513#8 28473513#9 28473513#10 -28473513#10 -28473513#9 -28473513#8 -28473513#7 -28473513#6 -28473513#5"/>
    </vehicle>
    <vehicle id="21" depart="21.00">
        <route edges="1062618310#6 1062618312#0 1062618312#1 1062618312#2 1062618312#4 1068183451 49695763 1068183457#0 1068183457#1"/>
    </vehicle>
    <vehicle id="22" depart="22.00">
        <route edges="-312285228#1 -51833081#1 308585153#1 308585153#4 308585153#5 308585153#6 50823701#0 1062618310#1 1062618310#2 1062618310#3 1062618310#4"/>
    </vehicle>
    <vehicle id="23" depart="23.00">
        <route edges="-312294940#6 -312294940#5 -312294940#4 -312294940#3 -312294940#2 -312294940#1 256014951#4 256014951#5 751224068#0 751224068#1 751224068#2 751224068#3 751224068#4 751224068#6 1068183452#2"/>
    </vehicle>
    <vehicle id="24" depart="24.00">
        <route edges="312285228#1 312285228#2 -312294940#8 -312294940#7 -312294940#6 -312294940#5 -312294940#4 -312294940#3 -312294940#2 -312294940#1 256014951#4 256014951#5 751224068#0 751224068#1 751224068#2 751224068#3 751224068#4 751224068#6 751224068#7 1068183450 906806090#0 906806090#1 906806090#2 1062618316#0 1062618316#1 1062618316#2 262557965#0 262557965#1 1130909483#1 1130909483#2"/>
    </vehicle>
    <vehicle id="25" depart="25.00">
        <route edges="1320960187#2 58976063#14 58976063#15 58976063#16 529138608#2 529138608#3 529138608#5 529138608#6 529138608#7 317371470#1 317371470#2 317371470#3 317371470#4 317371470#5 776226803#1 776226803#2 776226803#3 -55259754#7 -55259754#6"/>
    </vehicle>
    <vehicle id="26" depart="26.00">
        <route edges="1068183452#0 1068183452#1 751224068#7 1068183461#1 1068183461#2 317371467#0 317371467#1 317371467#2 317371467#3 1068183462#0 1068183462#1 317526892#0 317526892#1 317526892#2 317526892#3 317526892#6 317526892#7 317526892#8 -312294940#12 -312294940#11 -312294940#10 -312294940#9 -312294940#8 -312294940#7 -312294940#6 -312294940#5 -312294940#4 -312294940#3 -312294940#2 -312294940#1 256014951#4 256014951#5 751224068#0 751224068#1 751224068#2"/>
    </vehicle>
    <vehicle id="28" depart="28.00">
        <route edges="-317526892#9 -317526892#8 -317526892#7 -317526892#6 231442514#0 231442514#1 231442514#2 231442515#0 231442515#1 231442515#3 231442515#4 231442515#5 231442515#6 231442515#7 205066812#3 205066812#5 205066812#7 205066812#8 205066812#11 205066812#12 205066812#13 229838543 260789408#0 260789408#1 260789408#2 260789408#3 260789408#4 260789408#5 316964711#0"/>
    </vehicle>
    <vehicle id="29" depart="29.00">
        <route edges="-317526892#6 317526892#6 317526892#7 317526892#8 -312294940#12 -312294940#11 -312294940#10 -312294940#9 -312294940#8 -312294940#7 -312294940#6 -312294940#5 259927557 28473513#5 28473513#6 28473513#7 28473513#8 28473513#9 28473513#10 197909810#0 197909810#1 197909810#2 197909810#3"/>
    </vehicle>
    <vehicle id="30" depart="30.00">
        <route edges="984958492#2 984958492#4 984958492#5 984958492#6 984958492#7 -290486781 1130909483#1 1130909483#2 290486786#0 290486786#1 290486786#2 290486786#3 984958491#0 984958491#1 984958491#2 984958491#4 316964691#1 316964691#2 316964691#3 311995318 58976063#0 58976063#1 58976063#2 58976063#5 58976063#6 58976063#8 58976063#10 58976063#11 58976063#14 58976063#15 58976063#16 529138608#2 529138608#3 529138608#5 529138608#6 529138608#7 317371470#1 317371470#2 317371470#3 317371470#4 317371470#5 776226803#1 776226803#2 776226803#3 308585154#1 308585154#2 51833081#1 312285228#1"/>
    </vehicle>
    <vehicle id="31" depart="31.00">
        <route edges="290486781 -290486781 1130909483#1 1130909483#2 290486786#0 290486786#1 290486786#2 290486786#3 984958491#0 984958491#1 984958491#2 984958491#4 316964691#1 316964691#2 316964691#3 311995318 58976063#0 58976063#1 58976063#2 58976063#5 58976063#6 312307198#2 312307198#4 312307198#5 312307198#6 312307198#7 312307198#8 312307198#9 312307198#10 312306448"/>
    </vehicle>
    <vehicle id="32" depart="32.00">
        <route edges="50823693#0 50823693#1 1062618310#4 1062618310#5 1062618310#6 -751224066 751224068#0 751224068#1 751224068#2 751224068#3 751224068#4 751224068#6 751224068#7 1068183461#1 1068183461#2 317371467#0 317371467#1 317371467#2 317371467#3 1068183462#0 1068183462#1 1068183464#1 1068183463#0 1068183463#1 317526886#0 317526886#2 317526886#3 1068183465#0 1068183465#1 58976063#0 58976063#1 58976063#2 58976063#5 58976063#6 58976063#8 58976063#10 58976063#11 58976063#14 58976063#15 58976063#16 529138608#2 529138608#3 529138608#5 529138608#6 529138608#7 317371470#1 317371470#2 317371470#3 317371470#4 317371470#5 317526891#4 317526891#6"/>
    </vehicle>
    <vehicle id="33" depart="33.00">
        <route edges="1062618311 256014951#0 256014951#1 256014951#2 256014951#3 312294940#1 312294940#2 312294940#3 312294940#4 259927557 -28473513#4 -28473513#3 -28473513#2 -28473513#1 -28473513#0"/>
    </vehicle>
    <vehicle id="34" depart="34.00">
        <route edges="1068183464#1 1068183463#0 1068183463#1 317526886#0 317526886#2 317526886#3 1068183465#0 1068183465#1 232359757 229838543 260789411 1068183460#0 1068183460#1 311995322#0 311995322#2 311995322#2-AddedOffRampEdge 1068183459#0 1068183459#1 308585152#0 308585152#1 1068183449#0 1068183449#2"/>
    </vehicle>
    <vehicle id="35" depart="35.00">
        <route edges="1062618308#1 256014951#0 256014951#1 256014951#2 256014951#3 256014951#4 256014951#5 751224068#0 751224068#1 751224068#2 751224068#3 751224068#4"/>
    </vehicle>
    <vehicle id="36" depart="36.00">
        <route edges="51833081#1 312285227#1 312285227#2 312285229#0 312285229#1 -312294940#4 -312294940#3 -312294940#2 -312294940#1 256014951#4 256014951#5 751224068#0 751224068#1 751224068#2 751224068#3 751224068#4 751224068#6 751224068#7 1068183461#1 1068183461#2 317371467#0 317371467#1 317371467#2 317371467#3 1068183462#0 1068183462#1 1068183464#1 1068183463#0"/>
    </vehicle>
    <vehicle id="37" depart="37.00">
        <route edges="312294940#3 312294940#4 -312294940#4 -312294940#3 -312294940#2 -312294940#1 256014951#4 256014951#5 751224068#0 751224068#1 751224068#2 751224068#3 751224068#4 751224068#6 751224068#7 1068183461#1 1068183461#2 317371467#0 317371467#1 317371467#2 317371467#3 1068183462#0 1068183462#1 1068183464#1 1068183463#0 1068183463#1 317526886#0 317526886#2 317526886#3 1068183465#0 1068183465#1 58976063#0 58976063#1 58976063#2 205066812#11 205066812#12"/>
    </vehicle>
    <vehicle id="38" depart="38.00">
        <route edges="58976063#15 58976063#16 529138608#2 529138608#3 529138608#5 529138608#6 529138608#7 317371470#1 317371470#2 317371470#3 317371470#4 317371470#5 776226803#1 776226803#2 776226803#3 308585154#1 308585154#2 308585153#1 308585153#4 308585153#5 308585153#6 256014951#0 256014951#1 256014951#2"/>
    </vehicle>
    <vehicle id="40" depart="40.00">
        <route edges="290486786#1 290486786#2 290486786#3 984958491#0 984958491#1 984958491#2 984958491#4 316964691#1 316964691#2 316964691#3 1068183460#0 1068183460#1 311995322#0 311995322#2 311995322#2-AddedOffRampEdge 1068183459#0 1068183459#1 308585152#0 308585152#1 1068183458#0 1068183458#2 1062618313#1 261876205#0 261876205#1 261876205#2 261876205#3 261876205#4 261876205#5 261876205#6 261876205#7 261876205#8 1062618317"/>
    </vehicle>
    <vehicle id="41" depart="41.00">
        <route edges="308585152#0 308585152#1 1068183458#0 1068183458#2 1068183450 906806090#0 906806090#1 906806090#2 1062618316#0 1062618316#1 1062618316#2 262557965#0 262557965#1 1130909483#1 1130909483#2 290486786#0 290486786#1 290486786#2 290486786#3 984958491#0 984958491#1 984958491#2 984958491#4 316964691#1 316964691#2 316964691#3 311995318 58976063#0 58976063#1 58976063#2 58976063#5 58976063#6 58976063#8 58976063#10 58976063#11 58976063#14 58976063#15 58976063#16 529138608#2 529138608#3 529138608#5 529138608#6 529138608#7 317371470#1 317371470#2 317371470#3 317371470#4 317371470#5 776226803#1 776226803#2 776226803#3 -55259754#7 -55259754#6 -55259754#5 -55259754#4 55259754#0 55259754#5"/>
    </vehicle>
    <vehicle id="42" depart="42.00">
        <route edges="205066812#7 205066812#8 205066812#11 205066812#12 205066812#13 229838543 260789411 1068183460#0 1068183460#1 311995322#0 311995322#2 311995322#2-AddedOffRampEdge 1068183459#0 1068183459#1 308585152#0 308585152#1 1068183458#0 1068183458#2 1062618313#1 261876205#0 261876205#1 261876205#2 261876205#3 261876205#4 261876205#5 261876205#6 261876205#7 261876205#8 1062618317 1062105332#0"/>
    </vehicle>
    <vehicle id="43" depart="43.00">
        <route edges="984958492#6 984958492#7 -290486781 1130909483#1 1130909483#2 290486786#0 290486786#1 290486786#2 290486786#3 984958491#0 984958491#1 984958491#2 984958491#4 316964691#1 316964691#2 316964691#3 1068183460#0 1068183460#1 311995322#0 311995322#2 311995322#2-AddedOffRampEdge 1068183459#0 1068183459#1 308585152#0 308585152#1 1068183458#0 1068183458#2 1062618313#1 261876205#0 261876205#1 261876205#2 261876205#3 261876205#4 261876205#5"/>
    </vehicle>
    <vehicle id="44" depart="44.00">
        <route edges="-312294940#12 -312294940#11 -312294940#10 -312294940#9 -312294940#8 -312294940#7 -312294940#6 -312294940#5 259927557 28473513#5 28473513#6 28473513#7 28473513#8 28473513#9 28473513#10 -28473513#10 -28473513#9 -28473513#8 -28473513#7 -28473513#6 -28473513#5"/>
    </vehicle>
    <vehicle id="45" depart="45.00">
        <route edges="-312294940#9 -312285228#2 312285226#3"/>
    </vehicle>
    <vehicle id="46" depart="46.00">
        <route edges="317526892#6 317526892#7 317526892#8 -317526892#8 -317526892#7 -317526892#6 231442514#0 231442514#1 231442514#2 231442515#0 231442515#1"/>
    </vehicle>
    <vehicle id="47" depart="47.00">
        <route edges="-28473518#3 -28473518#2 -28473518#1 58976063#10 58976063#11 -231442515#7 -231442515#6 -231442515#5 -231442515#4 -231442515#3 -231442515#1 -231442515#0 -231442514#2 -231442514#1 -231442514#0 317526892#6 317526892#7 317526892#8 -312294940#12 -312294940#11 -312294940#10 -312294940#9 -312294940#8 -312294940#7 -312294940#6 -312294940#5 259927557 28473513#5 28473513#6 28473513#7 28473513#8 28473513#9 28473513#10 197909810#0 197909810#1 197909810#2 197909810#3 197909810#4"/>
    </vehicle>
    <vehicle id="50" depart="50.00">
        <route edges="-231442514#2 231442514#2 231442515#0 231442515#1 231442515#3 231442515#4 231442515#5 231442515#6 231442515#7 205066812#3 205066812#5 205066812#7 205066812#8 205066812#11 205066812#12 205066812#13 229838543 260789408#0 260789408#1 260789408#2 260789408#3 260789408#4 260789408#5 316964685 316964691#0"/>
    </vehicle>
    <vehicle id="51" depart="51.00">
        <route edges="312306448 -231442514#1 -231442514#0 317526892#6 317526892#7 317526892#8 -312294940#12 -312294940#11 -312294940#10 -312294940#9 -312294940#8 -312294940#7 -312294940#6 -312294940#5 259927557 28473513#5 28473513#6 28473513#7 28473513#8 28473513#9 28473513#10"/>
    </vehicle>
    <vehicle id="52" depart="52.00">
        <route edges="1068183452#0 1068183452#1 751224068#7 1068183461#1 1068183461#2 317371467#0 317371467#1 317371467#2 317371467#3 1068183462#0 1068183462#1 317526892#0 317526892#1 317526892#2 317526892#3 317526892#6 317526892#7 317526892#8 317526892#9 312285226#0 312285226#1 312285226#2 312285228#2"/>
    </vehicle>
    <vehicle id="53" depart="53.00">
        <route edges="-312306447#0 -776226804#1 776226804#1 312306447#0 312306447#3 312306447#4 312306447#5 231442515#3 231442515#4 231442515#5 231442515#6 231442515#7"/>
    </vehicle>
    <vehicle id="54" depart="54.00">
        <route edges="256014951#1 256014951#2 256014951#3 312294940#1 312294940#2 312294940#3 312294940#4 312294940#5 312294940#6 312294940#7 312294940#8 312294940#9 312294940#10 312294940#11 312294940#12 317526892#9 317526892#10 317526892#11 317526892#12 317526891#1 317526891#2 776226803#1 776226803#2"/>
    </vehicle>
    <vehicle id="55" depart="55.00">
        <route edges="51833081#1 312285227#1 312285227#2 312285229#0 312285229#1 -312294940#4 -312294940#3 -312294940#2 -312294940#1 256014951#4 256014951#5 751224068#0 751224068#1 751224068#2 751224068#3 751224068#4 751224068#6 751224068#7 1062618313#1 261876205#0 261876205#1 261876205#2 261876205#3 261876205#4 261876205#5 261876205#6 261876205#7 261876205#8 1062618317"/>
    </vehicle>
    <vehicle id="57" depart="57.00">
        <route edges="58976063#14 58976063#15 58976063#16 529138608#2 529138608#3 529138608#5 529138608#6 529138608#7 317371470#1 317371470#2 317371470#3 317371470#4 317371470#5 776226803#1 776226803#2 776226803#3 -317526892#12 51833040#0 51833040#1 51833040#2 51833040#3 51833040#4"/>
    </vehicle>
    <vehicle id="58" depart="58.00">
        <route edges="1068183460#1 311995322#0 311995322#2 311995322#2-AddedOffRampEdge 1068183459#0 1068183459#1 317526892#0 317526892#1 317526892#2 317526892#3 317526892#6 317526892#7 317526892#8 317526892#9 317526892#10 317526892#11 51833040#0 51833040#1 51833040#2 51833040#3 51833040#4 312285228#1"/>
    </vehicle>
    <vehicle id="59" depart="59.00">
        <route edges="311995322#0 311995322#2 311995322#2-AddedOffRampEdge 1068183459#0 1068183459#1 317526892#0 317526892#1 317526892#2 317526892#3 317526892#6 317526892#7 317526892#8 317526892#9 317526892#10 317526892#11 -317526892#11"/>
    </vehicle>
    <vehicle id="60" depart="60.00">
        <route edges="317526886#3 1068183465#0 1068183465#1 58976063#0 58976063#1 58976063#2 58976063#5 58976063#6 58976063#8 58976063#10 58976063#11 58976063#14 58976063#15 58976063#16 529138608#2 529138608#3 529138608#5 529138608#6 529138608#7 317371470#1 317371470#2 317371470#3 317371470#4 317371470#5 776226803#1 776226803#2 776226803#3 308585154#1 308585154#2 308585153#1 308585153#4 308585153#5 308585153#6 256014951#0 256014951#1 256014951#2 256014951#3 256014951#4 256014951#5 28473513#0 28473513#1 28473513#2"/>
    </vehicle>
    <vehicle id="63" depart="63.00">
        <route edges="-231442515#3 231442515#3 231442515#4 231442515#5 231442515#6 231442515#7 205066812#3 205066812#5 58976063#8"/>
    </vehicle>
    <vehicle id="64" depart="64.00">
        <route edges="529138608#3 529138608#5 529138608#6 529138608#7 317371470#1 317371470#2 317371470#3 317371470#4 317371470#5 776226803#1 776226803#2 776226803#3 308585154#1 308585154#2 308585153#1 308585153#4 308585153#5 308585153#6 256014951#0 256014951#1 256014951#2 256014951#3 256014951#4 256014951#5 751224068#0 751224068#1 751224068#2 751224068#3 751224068#4 751224068#6 751224068#7 1062618313#1 261876205#0 261876205#1 261876205#2 261876205#3 261876205#4 49695765#0"/>
    </vehicle>
    <vehicle id="65" depart="65.00">
        <route edges="1068183462#1 1068183464#1 1068183463#0 1068183463#1 317526886#0 317526886#2 317526886#3 1068183465#0 1068183465#1 58976063#0 58976063#1 58976063#2 58976063#5 58976063#6 58976063#8 28473518#1 28473518#2 28473518#3 -28473518#3 -28473518#2 -28473518#1"/>
    </vehicle>
    <vehicle id="66" depart="66.00">
        <route edges="529138608#2 529138608#3 529138608#5 529138608#6 529138608#7 317371470#1 317371470#2 317371470#3 317371470#4 317371470#5 776226803#1 776226803#2 776226803#3 308585154#1 308585154#2 308585153#1 308585153#4 308585153#5 308585153#6 256014951#0 256014951#1 256014951#2 256014951#3 256014951#4 256014951#5 751224068#0 751224068#1 751224068#2 751224068#3 751224068#4 751224068#6 751224068#7"/>
    </vehicle>
    <vehicle id="67" depart="67.00">
        <route edges="-312294940#10 -312294940#9 -312294940#8 -312294940#7 -312294940#6 -312294940#5 -312294940#4 -312294940#3 -312294940#2 -312294940#1 256014951#4 256014951#5 751224068#0 751224068#1 751224068#2 751224068#3 751224068#4 751224068#6 751224068#7 1068183461#1 1068183461#2 317371467#0 317371467#1 317371467#2 317371467#3 1068183462#0 1068183462#1 1068183464#1 1068183463#0 1068183463#1 317526886#0 317526886#2 317526886#3 1068183465#0 1068183465#1 232359757 229838543 260789408#0 260789408#1 260789408#2 260789408#3"/>
    </vehicle>
    <vehicle id="68" depart="68.00">
        <route edges="-30688329#1 303668053 984958491#0 984958491#1 984958491#2 984958491#4 316964691#1 316964691#2 316964691#3 311995318 58976063#0 58976063#1 58976063#2 58976063#5 58976063#6 58976063#8 58976063#10 58976063#11 58976063#14 58976063#15 58976063#16 529138608#2 529138608#3 529138608#5 529138608#6 529138608#7 317371470#1 317371470#2 317371470#3 317371470#4 317371470#5"/>
    </vehicle>
    <vehicle id="69" depart="69.00">
        <route edges="317526891#1 317526891#2 776226803#1 776226803#2 776226803#3 -317526892#12 -317526892#11 -317526892#10 -317526892#9 -317526892#8 -317526892#7 -317526892#6 -317526892#3 -312307198#11 -312307198#10 -312307198#9 -312307198#8 -312307198#7 -312307198#6"/>
    </vehicle>
    <vehicle id="70" depart="70.00">
        <route edges="259927557 28473513#5 28473513#6 28473513#7"/>
    </vehicle>
    <vehicle id="72" depart="72.00">
        <route edges="231442515#4 231442515#5 231442515#6 231442515#7 58976063#14 58976063#15 58976063#16 529138608#2 529138608#3 529138608#5 529138608#6 529138608#7 317371470#1 317371470#2 317371470#3 317371470#4 317371470#5 776226803#1 776226803#2 776226803#3 -55259754#7"/>
    </vehicle>
    <vehicle id="73" depart="73.00">
        <route edges="28473513#4 -28473513#4 -28473513#3 -28473513#2 -28473513#1 -28473513#0 751224068#0 751224068#1 751224068#2 751224068#3 751224068#4 751224068#6 751224068#7 1068183461#1 1068183461#2 317371467#0 317371467#1 317371467#2 317371467#3 1068183462#0 1068183462#1 1068183464#1 1068183463#0 1068183463#1 317526886#0 317526886#2 317526886#3 1068183465#0 1068183465#1 232359757 229838543 260789408#0 260789408#1 260789408#2 260789408#3 260789408#4 260789408#5 316964711#0"/>
    </vehicle>
    <vehicle id="74" depart="74.00">
        <route edges="-55259754#6 -55259754#5 -55259754#4 55259754#0 55259754#5 55259754#6 55259754#7 308585154#1 308585154#2 308585153#1 308585153#4 308585153#5 308585153#6 256014951#0 256014951#1 256014951#2 256014951#3 256014951#4 256014951#5 751224068#0 751224068#1 751224068#2 751224068#3 751224068#4 751224068#6 751224068#7 1068183461#1 1068183461#2 317371467#0 317371467#1 317371467#2 317371467#3 1068183462#0"/>
    </vehicle>
    <vehicle id="75" depart="75.00">
        <route edges="984958492#5 984958492#6 984958492#7 -290486781 1130909483#1 1130909483#2 290486786#0 290486786#1 290486786#2 290486786#3 984958491#0 984958491#1 984958491#2 984958491#4 316964691#1 316964691#2 316964691#3 311995318 58976063#0 58976063#1 58976063#2 58976063#5 58976063#6 58976063#8 58976063#10 58976063#11 -231442515#7 -231442515#6 -231442515#5 -231442515#4 -231442515#3 -231442515#1 -231442515#0 -231442514#2 -231442514#1 -231442514#0 317526892#6 317526892#7 317526892#8 -312294940#12 -312294940#11 -312294940#10 -312294940#9 312294940#9 312294940#10"/>
    </vehicle>
    <vehicle id="76" depart="76.00">
        <route edges="255904602#0 255904602#1 255904602#2 1062618308#0 1062618308#1 256014951#0 256014951#1 256014951#2 256014951#3 256014951#4 256014951#5 751224068#0 751224068#1 751224068#2 751224068#3 751224068#4 751224068#6 751224068#7 1062618313#1 1068183457#0 1068183457#1 261876206#0-AddedOnRampEdge 261876206#0"/>
    </vehicle>
    <vehicle id="79" depart="79.00">
        <route edges="1062618311 256014951#0 256014951#1 256014951#2 256014951#3 256014951#4 256014951#5 751224068#0 751224068#1 751224068#2 751224068#3 751224068#4 751224068#6 751224068#7 1062618313#1 261876205#0 261876205#1 261876205#2 261876205#3 261876205#4 261876205#5 261876205#6 261876205#7 261876205#8 1062618317 1062105332#0"/>
    </vehicle>
    <vehicle id="80" depart="80.00">
        <route edges="-308941102#1 -308941102#0 308941102#0 308941102#1 256015901#1 256015901#2 51833081#1 312285228#1 312285226#3 312285226#4 312285226#5"/>
    </vehicle>
    <vehicle id="81" depart="81.00">
        <route edges="1062618311 256014951#0 256014951#1 256014951#2 256014951#3 256014951#4 256014951#5 751224068#0 751224068#1 751224068#2 751224068#3 751224068#4 751224068#6 751224068#7 1068183461#1 1068183461#2 317371467#0 317371467#1 317371467#2 317371467#3 1068183462#0 1068183462#1 1068183464#1 1068183463#0 1068183463#1 317526886#0 317526886#2 317526886#3 1068183465#0 1068183465#1 58976063#0"/>
    </vehicle>
    <vehicle id="82" depart="82.00">
        <route edges="51833040#0 51833040#1 51833040#2 51833040#3 51833040#4 312285227#1 312285227#2 -312285227#2 -312285227#1"/>
    </vehicle>
    <vehicle id="84" depart="84.00">
        <route edges="1062618310#0 1062618310#1 1062618310#2 1062618310#3 1062618310#4 1062618310#5 1062618310#6 -751224066 751224068#0 751224068#1 751224068#2 751224068#3 751224068#4 751224068#6 751224068#7 1068183461#1 1068183461#2 317371467#0 317371467#1 317371467#2 317371467#3 1068183462#0 1068183462#1 317526892#0 317526892#1 317526892#2 -312307198#11 -312307198#10 -312307198#9 -312307198#8"/>
    </vehicle>
    <vehicle id="85" depart="85.00">
        <route edges="751224068#2 751224068#3 751224068#4 751224068#6 751224068#7 1068183450 906806090#0 906806090#1 906806090#2 1062618316#0 1062618316#1 1062618316#2 262557965#0 262557965#1 1130909483#1 1130909483#2 290486786#0 290486786#1 290486786#2"/>
    </vehicle>
    <vehicle id="86" depart="86.00">
        <route edges="256015901#6 308585154#1 308585154#2 308585153#1 308585153#4 308585153#5 308585153#6 256014951#0 256014951#1 256014951#2 256014951#3 256014951#4 256014951#5 751224068#0 751224068#1 751224068#2 751224068#3 751224068#4 751224068#6 751224068#7 1068183461#1 1068183461#2 317371467#0 317371467#1 317371467#2 317371467#3 1068183462#0 1068183462#1 317526892#0 317526892#1"/>
    </vehicle>
    <vehicle id="87" depart="87.00">
        <route edges="327382344#2 327382344#3 327382344#5 327382344#6 327382344#7 303668053 984958491#0 984958491#1 984958491#2 984958491#4 316964691#1 316964691#2 316964691#3 311995318 58976063#0 58976063#1 58976063#2 58976063#5 58976063#6 58976063#8 58976063#10 58976063#11 58976063#14 58976063#15 58976063#16 529138608#2 529138608#3 529138608#5 529138608#6 529138608#7 317371470#1 317371470#2 317371470#3 317371470#4 317371470#5 776226803#1 776226803#2 776226803#3 308585154#1 308585154#2 51833081#1 -51833040#4 -51833040#3 -51833040#2 -51833040#1 -51833040#0"/>
    </vehicle>
    <vehicle id="88" depart="88.00">
        <route edges="-312294940#4 -312294940#3 -312294940#2 -312294940#1 312294940#1 312294940#2 312294940#3 312294940#4 312294940#5 312294940#6 312294940#7 312294940#8 312294940#9 312294940#10 312294940#11 312294940#12 -317526892#8 -317526892#7 -317526892#6 231442514#0 231442514#1 231442514#2 231442515#0 231442515#1 231442515#3 231442515#4 231442515#5 231442515#6"/>
    </vehicle>
    <vehicle id="91" depart="91.00">
        <route edges="984958492#0 984958492#1 984958492#2 984958492#4 984958492#5 984958492#6 984958492#7 -290486781 1130909483#1 1130909483#2 290486786#0 290486786#1 290486786#2 290486786#3 984958491#0 984958491#1 984958491#2 984958491#4 316964691#1 316964691#2 316964691#3 311995318 58976063#0 58976063#1 58976063#2 58976063#5 58976063#6 58976063#8 58976063#10 58976063#11 -231442515#7 -231442515#6 -231442515#5 -231442515#4 -231442515#3 -231442515#1 -231442515#0 -231442514#2 -231442514#1 -231442514#0 317526892#6 317526892#7 317526892#8 -312294940#12 -312294940#11 -312294940#10 -312294940#9 -312294940#8 -312294940#7 -312294940#6"/>
    </vehicle>
    <vehicle id="92" depart="92.00">
        <route edges="205066812#8 205066812#11 205066812#12 205066812#13 229838543 260789411 1068183460#0 1068183460#1 311995322#0 311995322#2 311995322#2-AddedOffRampEdge 1068183459#0 1068183459#1 308585152#0 308585152#1 1068183458#0 1068183458#2 1062618313#1 261876205#0 1068183477#2"/>
    </vehicle>
    <vehicle id="93" depart="93.00">